<routes>
            <vType accel="1.0" decel="4.5" id="standard_car" length="5.0" minGap="2.5" maxSpeed="25" sigma="0.5" />

            <route id="W_N" edges="W2TL TL2N"/>
            <route id="W_2_N" edges="W2TL TL2E 2_TL2N"/>
            <route id="W_E" edges="W2TL TL2E 2_TL2E"/>
            <route id="W_S" edges="W2TL TL2S"/>
            <route id="W_2_S" edges ="W2TL TL2E 2_TL2S"/>
            
            <route id="N_W" edges="N2TL TL2W"/>
            <route id="N_E" edges="N2TL TL2E 2_TL2E"/>
            <route id="N_S" edges="N2TL TL2S"/>
            <route id="N_2_S" edges="N2TL TL2E 2_TL2S" />
            <route id="N_2_N" edges="N2TL TL2E 2_TL2N" />
            
            <route id="S_W" edges="S2TL TL2W"/>
            <route id="S_N" edges="S2TL TL2N"/>
            <route id="S_2_N" edges="S2TL TL2E 2_TL2N" />
            <route id="S_E" edges="S2TL TL2E 2_TL2E"/>
            <route id="S_2_S" edges="S2TL TL2E 2_TL2S" />
            
            <route id="E_W" edges="2_E2TL 2_TL2W TL2W"/>
            <route id="E_N" edges="2_E2TL 2_TL2W TL2N"/>
            <route id="E_S" edges="2_E2TL 2_TL2W TL2S"/>
            <route id="E_2_N" edges="2_E2TL 2_TL2N" />
            <route id="E_2_S" edges="2_E2TL 2_TL2S" />

            <route id="2_N_E" edges="2_N2TL 2_TL2E" />
            <route id="2_N_2_S" edges="2_N2TL 2_TL2S" />
            <route id="2_N_W" edges="2_N2TL 2_TL2W TL2W" />
            <route id="2_N_N" edges="2_N2TL 2_TL2W TL2N" />
            <route id="2_N_S" edges="2_N2TL 2_TL2W TL2S" />
            
            <route id="2_S_E" edges="2_S2TL 2_TL2E" />
            <route id="2_S_2_N" edges="2_S2TL 2_TL2N" />
            <route id="2_S_W" edges="2_S2TL 2_TL2W TL2W" />
            <route id="2_S_N" edges="2_S2TL 2_TL2W TL2N" />
            <route id="2_S_S" edges="2_S2TL 2_TL2W TL2S" />
            
            
            
    <vehicle id="2_S_2_N_0" type="standard_car" route="2_S_2_N" depart="10.0" departLane="random" departSpeed="10" > <stop lane="2_TL2N_1" endPos="750" duration="5"/> </vehicle>
    <vehicle id="N_2_N_1" type="standard_car" route="N_2_N" depart="11.0" departLane="random" departSpeed="10"> <stop lane="2_TL2N_3" endPos="750" duration="5"/> </vehicle>
    <vehicle id="E_W_2" type="standard_car" route="E_W" depart="13.0" departLane="random" departSpeed="10" > <stop lane="TL2W_2" endPos="750" duration="5"/> </vehicle>
    <vehicle id="S_N_3" type="standard_car" route="S_N" depart="14.0" departLane="random" departSpeed="10" > <stop lane="TL2N_2" endPos="750" duration="5"/> </vehicle>
    <vehicle id="N_S_4" type="standard_car" route="N_S" depart="28.0" departLane="random" departSpeed="10" > <stop lane="TL2S_0" endPos="750" duration="5"/> </vehicle>
    <vehicle id="2_S_2_N_5" type="standard_car" route="2_S_2_N" depart="36.0" departLane="random" departSpeed="10" > <stop lane="2_TL2N_3" endPos="750" duration="5"/> </vehicle>
    <vehicle id="N_S_6" type="standard_car" route="N_S" depart="42.0" departLane="random" departSpeed="10" > <stop lane="TL2S_1" endPos="750" duration="5"/> </vehicle>
    <vehicle id="W_2_S_7" type="standard_car" route="W_2_S" depart="44.0" departLane="random" departSpeed="10" > <stop lane="2_TL2S_1" endPos="750" duration="5"/> </vehicle>
    <vehicle id="S_W_8" type="standard_car" route="S_W" depart="44.0" departLane="random" departSpeed="10"> <stop lane="TL2W_2" endPos="750" duration="5"/> </vehicle>
    <vehicle id="E_W_9" type="standard_car" route="E_W" depart="50.0" departLane="random" departSpeed="10" > <stop lane="TL2W_2" endPos="750" duration="5"/> </vehicle>
    <vehicle id="2_S_N_10" type="standard_car" route="2_S_N" depart="55.0" departLane="random" departSpeed="10" > <stop lane="TL2N_2" endPos="750" duration="5"/> </vehicle>
    <vehicle id="2_N_2_S_11" type="standard_car" route="2_N_2_S" depart="59.0" departLane="random" departSpeed="10" > <stop lane="2_TL2S_2" endPos="750" duration="5"/> </vehicle>
    <vehicle id="2_N_2_S_12" type="standard_car" route="2_N_2_S" depart="59.0" departLane="random" departSpeed="10" > <stop lane="2_TL2S_2" endPos="750" duration="5"/> </vehicle>
    <vehicle id="W_2_N_13" type="standard_car" route="W_2_N" depart="62.0" departLane="random" departSpeed="10" > <stop lane="2_TL2N_0" endPos="750" duration="5"/> </vehicle>
    <vehicle id="N_2_S_14" type="standard_car" route="N_2_S" depart="62.0" departLane="random" departSpeed="10"> <stop lane="2_TL2S_0" endPos="750" duration="5"/> </vehicle>
    <vehicle id="E_N_15" type="standard_car" route="E_N" depart="63.0" departLane="random" departSpeed="10"> <stop lane="TL2N_0" endPos="750" duration="5"/> </vehicle>
    <vehicle id="W_E_16" type="standard_car" route="W_E" depart="68.0" departLane="random" departSpeed="10" > <stop lane="2_TL2E_0" endPos="750" duration="5"/> </vehicle>
    <vehicle id="2_N_N_17" type="standard_car" route="2_N_N" depart="69.0" departLane="random" departSpeed="10"> <stop lane="TL2N_3" endPos="750" duration="5"/> </vehicle>
    <vehicle id="N_S_18" type="standard_car" route="N_S" depart="70.0" departLane="random" departSpeed="10" > <stop lane="TL2S_3" endPos="750" duration="5"/> </vehicle>
    <vehicle id="2_S_E_19" type="standard_car" route="2_S_E" depart="71.0" departLane="random" departSpeed="10"> <stop lane="2_TL2E_2" endPos="750" duration="5"/> </vehicle>
    <vehicle id="S_N_20" type="standard_car" route="S_N" depart="71.0" departLane="random" departSpeed="10" > <stop lane="TL2N_1" endPos="750" duration="5"/> </vehicle>
    <vehicle id="N_S_21" type="standard_car" route="N_S" depart="72.0" departLane="random" departSpeed="10" > <stop lane="TL2S_1" endPos="750" duration="5"/> </vehicle>
    <vehicle id="E_S_22" type="standard_car" route="E_S" depart="73.0" departLane="random" departSpeed="10"> <stop lane="TL2S_3" endPos="750" duration="5"/> </vehicle>
    <vehicle id="E_N_23" type="standard_car" route="E_N" depart="74.0" departLane="random" departSpeed="10"> <stop lane="TL2N_2" endPos="750" duration="5"/> </vehicle>
    <vehicle id="S_N_24" type="standard_car" route="S_N" depart="78.0" departLane="random" departSpeed="10" > <stop lane="TL2N_1" endPos="750" duration="5"/> </vehicle>
    <vehicle id="S_W_25" type="standard_car" route="S_W" depart="80.0" departLane="random" departSpeed="10"> <stop lane="TL2W_0" endPos="750" duration="5"/> </vehicle>
    <vehicle id="E_N_26" type="standard_car" route="E_N" depart="81.0" departLane="random" departSpeed="10"> <stop lane="TL2N_3" endPos="750" duration="5"/> </vehicle>
    <vehicle id="2_S_E_27" type="standard_car" route="2_S_E" depart="89.0" departLane="random" departSpeed="10"> <stop lane="2_TL2E_1" endPos="750" duration="5"/> </vehicle>
    <vehicle id="2_S_2_N_28" type="standard_car" route="2_S_2_N" depart="90.0" departLane="random" departSpeed="10" > <stop lane="2_TL2N_3" endPos="750" duration="5"/> </vehicle>
    <vehicle id="W_N_29" type="standard_car" route="W_N" depart="90.0" departLane="random" departSpeed="10" > <stop lane="TL2N_0" endPos="750" duration="5"/> </vehicle>
    <vehicle id="2_N_N_30" type="standard_car" route="2_N_N" depart="91.0" departLane="random" departSpeed="10"> <stop lane="TL2N_2" endPos="750" duration="5"/> </vehicle>
    <vehicle id="S_2_N_31" type="standard_car" route="S_2_N" depart="93.0" departLane="random" departSpeed="10" > <stop lane="2_TL2N_2" endPos="750" duration="5"/> </vehicle>
    <vehicle id="W_2_S_32" type="standard_car" route="W_2_S" depart="93.0" departLane="random" departSpeed="10" > <stop lane="2_TL2S_2" endPos="750" duration="5"/> </vehicle>
    <vehicle id="2_S_2_N_33" type="standard_car" route="2_S_2_N" depart="94.0" departLane="random" departSpeed="10" > <stop lane="2_TL2N_1" endPos="750" duration="5"/> </vehicle>
    <vehicle id="S_N_34" type="standard_car" route="S_N" depart="97.0" departLane="random" departSpeed="10" > <stop lane="TL2N_3" endPos="750" duration="5"/> </vehicle>
    <vehicle id="E_2_N_35" type="standard_car" route="E_2_N" depart="100.0" departLane="random" departSpeed="10"> <stop lane="2_TL2N_0" endPos="750" duration="5"/> </vehicle>
    <vehicle id="W_2_S_36" type="standard_car" route="W_2_S" depart="100.0" departLane="random" departSpeed="10" > <stop lane="2_TL2S_0" endPos="750" duration="5"/> </vehicle>
    <vehicle id="S_N_37" type="standard_car" route="S_N" depart="104.0" departLane="random" departSpeed="10" > <stop lane="TL2N_3" endPos="750" duration="5"/> </vehicle>
    <vehicle id="E_2_N_38" type="standard_car" route="E_2_N" depart="104.0" departLane="random" departSpeed="10"> <stop lane="2_TL2N_0" endPos="750" duration="5"/> </vehicle>
    <vehicle id="W_2_S_39" type="standard_car" route="W_2_S" depart="105.0" departLane="random" departSpeed="10" > <stop lane="2_TL2S_3" endPos="750" duration="5"/> </vehicle>
    <vehicle id="W_S_40" type="standard_car" route="W_S" depart="106.0" departLane="random" departSpeed="10" > <stop lane="TL2S_2" endPos="750" duration="5"/> </vehicle>
    <vehicle id="2_S_2_N_41" type="standard_car" route="2_S_2_N" depart="106.0" departLane="random" departSpeed="10" > <stop lane="2_TL2N_1" endPos="750" duration="5"/> </vehicle>
    <vehicle id="E_W_42" type="standard_car" route="E_W" depart="106.0" departLane="random" departSpeed="10" > <stop lane="TL2W_1" endPos="750" duration="5"/> </vehicle>
    <vehicle id="W_2_N_43" type="standard_car" route="W_2_N" depart="106.0" departLane="random" departSpeed="10" > <stop lane="2_TL2N_1" endPos="750" duration="5"/> </vehicle>
    <vehicle id="N_S_44" type="standard_car" route="N_S" depart="111.0" departLane="random" departSpeed="10" > <stop lane="TL2S_1" endPos="750" duration="6"/> </vehicle>
    <vehicle id="N_S_45" type="standard_car" route="N_S" depart="114.0" departLane="random" departSpeed="10" > <stop lane="TL2S_2" endPos="750" duration="6"/> </vehicle>
    <vehicle id="W_2_S_46" type="standard_car" route="W_2_S" depart="118.0" departLane="random" departSpeed="10" > <stop lane="2_TL2S_3" endPos="750" duration="6"/> </vehicle>
    <vehicle id="N_W_47" type="standard_car" route="N_W" depart="119.0" departLane="random" departSpeed="10" > <stop lane="TL2W_0" endPos="750" duration="6"/> </vehicle>
    <vehicle id="2_N_N_48" type="standard_car" route="2_N_N" depart="119.0" departLane="random" departSpeed="10"> <stop lane="TL2N_1" endPos="750" duration="6"/> </vehicle>
    <vehicle id="W_2_N_49" type="standard_car" route="W_2_N" depart="120.0" departLane="random" departSpeed="10" > <stop lane="2_TL2N_3" endPos="750" duration="6"/> </vehicle>
    <vehicle id="E_N_50" type="standard_car" route="E_N" depart="121.0" departLane="random" departSpeed="10"> <stop lane="TL2N_0" endPos="750" duration="6"/> </vehicle>
    <vehicle id="E_W_51" type="standard_car" route="E_W" depart="126.0" departLane="random" departSpeed="10" > <stop lane="TL2W_2" endPos="750" duration="6"/> </vehicle>
    <vehicle id="2_N_W_52" type="standard_car" route="2_N_W" depart="126.0" departLane="random" departSpeed="10" > <stop lane="TL2W_2" endPos="750" duration="6"/> </vehicle>
    <vehicle id="2_S_E_53" type="standard_car" route="2_S_E" depart="127.0" departLane="random" departSpeed="10"> <stop lane="2_TL2E_1" endPos="750" duration="6"/> </vehicle>
    <vehicle id="E_W_54" type="standard_car" route="E_W" depart="127.0" departLane="random" departSpeed="10" > <stop lane="TL2W_2" endPos="750" duration="6"/> </vehicle>
    <vehicle id="N_S_55" type="standard_car" route="N_S" depart="127.0" departLane="random" departSpeed="10" > <stop lane="TL2S_2" endPos="750" duration="6"/> </vehicle>
    <vehicle id="W_2_N_56" type="standard_car" route="W_2_N" depart="128.0" departLane="random" departSpeed="10" > <stop lane="2_TL2N_2" endPos="750" duration="6"/> </vehicle>
    <vehicle id="E_2_N_57" type="standard_car" route="E_2_N" depart="128.0" departLane="random" departSpeed="10"> <stop lane="2_TL2N_3" endPos="750" duration="6"/> </vehicle>
    <vehicle id="E_N_58" type="standard_car" route="E_N" depart="130.0" departLane="random" departSpeed="10"> <stop lane="TL2N_0" endPos="750" duration="6"/> </vehicle>
    <vehicle id="W_S_59" type="standard_car" route="W_S" depart="134.0" departLane="random" departSpeed="10" > <stop lane="TL2S_3" endPos="750" duration="6"/> </vehicle>
    <vehicle id="N_2_S_60" type="standard_car" route="N_2_S" depart="134.0" departLane="random" departSpeed="10"> <stop lane="2_TL2S_0" endPos="750" duration="6"/> </vehicle>
    <vehicle id="S_N_61" type="standard_car" route="S_N" depart="135.0" departLane="random" departSpeed="10" > <stop lane="TL2N_0" endPos="750" duration="6"/> </vehicle>
    <vehicle id="2_S_S_62" type="standard_car" route="2_S_S" depart="135.0" departLane="random" departSpeed="10" > <stop lane="TL2S_1" endPos="750" duration="6"/> </vehicle>
    <vehicle id="W_2_S_63" type="standard_car" route="W_2_S" depart="136.0" departLane="random" departSpeed="10" > <stop lane="2_TL2S_1" endPos="750" duration="6"/> </vehicle>
    <vehicle id="2_S_S_64" type="standard_car" route="2_S_S" depart="137.0" departLane="random" departSpeed="10" > <stop lane="TL2S_1" endPos="750" duration="6"/> </vehicle>
    <vehicle id="E_N_65" type="standard_car" route="E_N" depart="138.0" departLane="random" departSpeed="10"> <stop lane="TL2N_1" endPos="750" duration="6"/> </vehicle>
    <vehicle id="W_E_66" type="standard_car" route="W_E" depart="139.0" departLane="random" departSpeed="10" > <stop lane="2_TL2E_2" endPos="750" duration="6"/> </vehicle>
    <vehicle id="W_2_N_67" type="standard_car" route="W_2_N" depart="143.0" departLane="random" departSpeed="10" > <stop lane="2_TL2N_1" endPos="750" duration="6"/> </vehicle>
    <vehicle id="2_S_E_68" type="standard_car" route="2_S_E" depart="143.0" departLane="random" departSpeed="10"> <stop lane="2_TL2E_1" endPos="750" duration="6"/> </vehicle>
    <vehicle id="S_N_69" type="standard_car" route="S_N" depart="145.0" departLane="random" departSpeed="10" > <stop lane="TL2N_3" endPos="750" duration="6"/> </vehicle>
    <vehicle id="W_2_N_70" type="standard_car" route="W_2_N" depart="146.0" departLane="random" departSpeed="10" > <stop lane="2_TL2N_1" endPos="750" duration="6"/> </vehicle>
    <vehicle id="W_E_71" type="standard_car" route="W_E" depart="146.0" departLane="random" departSpeed="10" > <stop lane="2_TL2E_1" endPos="750" duration="6"/> </vehicle>
    <vehicle id="S_2_S_72" type="standard_car" route="S_2_S" depart="147.0" departLane="random" departSpeed="10" > <stop lane="2_TL2S_1" endPos="750" duration="6"/> </vehicle>
    <vehicle id="2_N_S_73" type="standard_car" route="2_N_S" depart="148.0" departLane="random" departSpeed="10"> <stop lane="TL2S_0" endPos="750" duration="6"/> </vehicle>
    <vehicle id="E_S_74" type="standard_car" route="E_S" depart="148.0" departLane="random" departSpeed="10"> <stop lane="TL2S_0" endPos="750" duration="6"/> </vehicle>
    <vehicle id="E_S_75" type="standard_car" route="E_S" depart="148.0" departLane="random" departSpeed="10"> <stop lane="TL2S_1" endPos="750" duration="6"/> </vehicle>
    <vehicle id="E_N_76" type="standard_car" route="E_N" depart="149.0" departLane="random" departSpeed="10"> <stop lane="TL2N_0" endPos="750" duration="6"/> </vehicle>
    <vehicle id="E_W_77" type="standard_car" route="E_W" depart="149.0" departLane="random" departSpeed="10" > <stop lane="TL2W_0" endPos="750" duration="6"/> </vehicle>
    <vehicle id="S_E_78" type="standard_car" route="S_E" depart="150.0" departLane="random" departSpeed="10" > <stop lane="2_TL2E_0" endPos="750" duration="6"/> </vehicle>
    <vehicle id="W_2_N_79" type="standard_car" route="W_2_N" depart="151.0" departLane="random" departSpeed="10" > <stop lane="2_TL2N_3" endPos="750" duration="6"/> </vehicle>
    <vehicle id="E_N_80" type="standard_car" route="E_N" depart="152.0" departLane="random" departSpeed="10"> <stop lane="TL2N_0" endPos="750" duration="6"/> </vehicle>
    <vehicle id="E_2_S_81" type="standard_car" route="E_2_S" depart="153.0" departLane="random" departSpeed="10" > <stop lane="2_TL2S_0" endPos="750" duration="6"/> </vehicle>
    <vehicle id="S_N_82" type="standard_car" route="S_N" depart="153.0" departLane="random" departSpeed="10" > <stop lane="TL2N_3" endPos="750" duration="6"/> </vehicle>
    <vehicle id="N_S_83" type="standard_car" route="N_S" depart="154.0" departLane="random" departSpeed="10" > <stop lane="TL2S_1" endPos="750" duration="6"/> </vehicle>
    <vehicle id="E_S_84" type="standard_car" route="E_S" depart="154.0" departLane="random" departSpeed="10"> <stop lane="TL2S_2" endPos="750" duration="6"/> </vehicle>
    <vehicle id="S_N_85" type="standard_car" route="S_N" depart="154.0" departLane="random" departSpeed="10" > <stop lane="TL2N_2" endPos="750" duration="6"/> </vehicle>
    <vehicle id="2_N_W_86" type="standard_car" route="2_N_W" depart="156.0" departLane="random" departSpeed="10" > <stop lane="TL2W_1" endPos="750" duration="6"/> </vehicle>
    <vehicle id="N_S_87" type="standard_car" route="N_S" depart="157.0" departLane="random" departSpeed="10" > <stop lane="TL2S_3" endPos="750" duration="6"/> </vehicle>
    <vehicle id="N_2_S_88" type="standard_car" route="N_2_S" depart="157.0" departLane="random" departSpeed="10"> <stop lane="2_TL2S_1" endPos="750" duration="6"/> </vehicle>
    <vehicle id="W_E_89" type="standard_car" route="W_E" depart="157.0" departLane="random" departSpeed="10" > <stop lane="2_TL2E_0" endPos="750" duration="6"/> </vehicle>
    <vehicle id="E_S_90" type="standard_car" route="E_S" depart="158.0" departLane="random" departSpeed="10"> <stop lane="TL2S_2" endPos="750" duration="6"/> </vehicle>
    <vehicle id="S_N_91" type="standard_car" route="S_N" depart="159.0" departLane="random" departSpeed="10" > <stop lane="TL2N_2" endPos="750" duration="6"/> </vehicle>
    <vehicle id="W_S_92" type="standard_car" route="W_S" depart="159.0" departLane="random" departSpeed="10" > <stop lane="TL2S_2" endPos="750" duration="6"/> </vehicle>
    <vehicle id="W_E_93" type="standard_car" route="W_E" depart="159.0" departLane="random" departSpeed="10" > <stop lane="2_TL2E_1" endPos="750" duration="6"/> </vehicle>
    <vehicle id="2_N_2_S_94" type="standard_car" route="2_N_2_S" depart="159.0" departLane="random" departSpeed="10" > <stop lane="2_TL2S_0" endPos="750" duration="6"/> </vehicle>
    <vehicle id="E_S_95" type="standard_car" route="E_S" depart="161.0" departLane="random" departSpeed="10"> <stop lane="TL2S_3" endPos="750" duration="6"/> </vehicle>
    <vehicle id="2_N_2_S_96" type="standard_car" route="2_N_2_S" depart="161.0" departLane="random" departSpeed="10" > <stop lane="2_TL2S_2" endPos="750" duration="6"/> </vehicle>
    <vehicle id="W_2_S_97" type="standard_car" route="W_2_S" depart="161.0" departLane="random" departSpeed="10" > <stop lane="2_TL2S_3" endPos="750" duration="6"/> </vehicle>
    <vehicle id="2_S_2_N_98" type="standard_car" route="2_S_2_N" depart="161.0" departLane="random" departSpeed="10" > <stop lane="2_TL2N_2" endPos="750" duration="6"/> </vehicle>
    <vehicle id="E_S_99" type="standard_car" route="E_S" depart="162.0" departLane="random" departSpeed="10"> <stop lane="TL2S_3" endPos="750" duration="6"/> </vehicle>
    <vehicle id="N_S_100" type="standard_car" route="N_S" depart="163.0" departLane="random" departSpeed="10" > <stop lane="TL2S_1" endPos="750" duration="6"/> </vehicle>
    <vehicle id="S_N_101" type="standard_car" route="S_N" depart="163.0" departLane="random" departSpeed="10" > <stop lane="TL2N_1" endPos="750" duration="6"/> </vehicle>
    <vehicle id="E_N_102" type="standard_car" route="E_N" depart="168.0" departLane="random" departSpeed="10"> <stop lane="TL2N_0" endPos="750" duration="6"/> </vehicle>
    <vehicle id="W_E_103" type="standard_car" route="W_E" depart="169.0" departLane="random" departSpeed="10" > <stop lane="2_TL2E_0" endPos="750" duration="6"/> </vehicle>
    <vehicle id="S_2_N_104" type="standard_car" route="S_2_N" depart="170.0" departLane="random" departSpeed="10" > <stop lane="2_TL2N_1" endPos="750" duration="6"/> </vehicle>
    <vehicle id="N_S_105" type="standard_car" route="N_S" depart="172.0" departLane="random" departSpeed="10" > <stop lane="TL2S_3" endPos="750" duration="6"/> </vehicle>
    <vehicle id="2_S_2_N_106" type="standard_car" route="2_S_2_N" depart="173.0" departLane="random" departSpeed="10" > <stop lane="2_TL2N_0" endPos="750" duration="6"/> </vehicle>
    <vehicle id="W_2_S_107" type="standard_car" route="W_2_S" depart="174.0" departLane="random" departSpeed="10" > <stop lane="2_TL2S_1" endPos="750" duration="6"/> </vehicle>
    <vehicle id="2_S_W_108" type="standard_car" route="2_S_W" depart="175.0" departLane="random" departSpeed="10"> <stop lane="TL2W_3" endPos="750" duration="6"/> </vehicle>
    <vehicle id="N_S_109" type="standard_car" route="N_S" depart="176.0" departLane="random" departSpeed="10" > <stop lane="TL2S_2" endPos="750" duration="6"/> </vehicle>
    <vehicle id="W_N_110" type="standard_car" route="W_N" depart="177.0" departLane="random" departSpeed="10" > <stop lane="TL2N_2" endPos="750" duration="6"/> </vehicle>
    <vehicle id="W_S_111" type="standard_car" route="W_S" depart="178.0" departLane="random" departSpeed="10" > <stop lane="TL2S_3" endPos="750" duration="6"/> </vehicle>
    <vehicle id="E_S_112" type="standard_car" route="E_S" depart="180.0" departLane="random" departSpeed="10"> <stop lane="TL2S_2" endPos="750" duration="6"/> </vehicle>
    <vehicle id="W_E_113" type="standard_car" route="W_E" depart="181.0" departLane="random" departSpeed="10" > <stop lane="2_TL2E_0" endPos="750" duration="6"/> </vehicle>
    <vehicle id="W_E_114" type="standard_car" route="W_E" depart="181.0" departLane="random" departSpeed="10" > <stop lane="2_TL2E_3" endPos="750" duration="6"/> </vehicle>
    <vehicle id="2_N_W_115" type="standard_car" route="2_N_W" depart="183.0" departLane="random" departSpeed="10" > <stop lane="TL2W_2" endPos="750" duration="6"/> </vehicle>
    <vehicle id="2_S_W_116" type="standard_car" route="2_S_W" depart="184.0" departLane="random" departSpeed="10"> <stop lane="TL2W_0" endPos="750" duration="6"/> </vehicle>
    <vehicle id="E_S_117" type="standard_car" route="E_S" depart="185.0" departLane="random" departSpeed="10"> <stop lane="TL2S_2" endPos="750" duration="6"/> </vehicle>
    <vehicle id="E_S_118" type="standard_car" route="E_S" depart="186.0" departLane="random" departSpeed="10"> <stop lane="TL2S_3" endPos="750" duration="6"/> </vehicle>
    <vehicle id="N_S_119" type="standard_car" route="N_S" depart="187.0" departLane="random" departSpeed="10" > <stop lane="TL2S_1" endPos="750" duration="6"/> </vehicle>
    <vehicle id="2_S_2_N_120" type="standard_car" route="2_S_2_N" depart="188.0" departLane="random" departSpeed="10" > <stop lane="2_TL2N_2" endPos="750" duration="6"/> </vehicle>
    <vehicle id="W_2_N_121" type="standard_car" route="W_2_N" depart="188.0" departLane="random" departSpeed="10" > <stop lane="2_TL2N_3" endPos="750" duration="6"/> </vehicle>
    <vehicle id="2_N_2_S_122" type="standard_car" route="2_N_2_S" depart="189.0" departLane="random" departSpeed="10" > <stop lane="2_TL2S_2" endPos="750" duration="6"/> </vehicle>
    <vehicle id="S_N_123" type="standard_car" route="S_N" depart="189.0" departLane="random" departSpeed="10" > <stop lane="TL2N_2" endPos="750" duration="6"/> </vehicle>
    <vehicle id="E_2_N_124" type="standard_car" route="E_2_N" depart="189.0" departLane="random" departSpeed="10"> <stop lane="2_TL2N_1" endPos="750" duration="6"/> </vehicle>
    <vehicle id="2_N_2_S_125" type="standard_car" route="2_N_2_S" depart="190.0" departLane="random" departSpeed="10" > <stop lane="2_TL2S_3" endPos="750" duration="6"/> </vehicle>
    <vehicle id="2_N_S_126" type="standard_car" route="2_N_S" depart="190.0" departLane="random" departSpeed="10"> <stop lane="TL2S_2" endPos="750" duration="6"/> </vehicle>
    <vehicle id="W_N_127" type="standard_car" route="W_N" depart="191.0" departLane="random" departSpeed="10" > <stop lane="TL2N_3" endPos="750" duration="6"/> </vehicle>
    <vehicle id="E_N_128" type="standard_car" route="E_N" depart="191.0" departLane="random" departSpeed="10"> <stop lane="TL2N_1" endPos="750" duration="6"/> </vehicle>
    <vehicle id="2_N_N_129" type="standard_car" route="2_N_N" depart="192.0" departLane="random" departSpeed="10"> <stop lane="TL2N_0" endPos="750" duration="6"/> </vehicle>
    <vehicle id="E_N_130" type="standard_car" route="E_N" depart="193.0" departLane="random" departSpeed="10"> <stop lane="TL2N_2" endPos="750" duration="6"/> </vehicle>
    <vehicle id="W_E_131" type="standard_car" route="W_E" depart="196.0" departLane="random" departSpeed="10" > <stop lane="2_TL2E_1" endPos="750" duration="6"/> </vehicle>
    <vehicle id="E_S_132" type="standard_car" route="E_S" depart="196.0" departLane="random" departSpeed="10"> <stop lane="TL2S_2" endPos="750" duration="6"/> </vehicle>
    <vehicle id="E_W_133" type="standard_car" route="E_W" depart="196.0" departLane="random" departSpeed="10" > <stop lane="TL2W_1" endPos="750" duration="6"/> </vehicle>
    <vehicle id="2_N_S_134" type="standard_car" route="2_N_S" depart="197.0" departLane="random" departSpeed="10"> <stop lane="TL2S_2" endPos="750" duration="6"/> </vehicle>
    <vehicle id="2_S_2_N_135" type="standard_car" route="2_S_2_N" depart="197.0" departLane="random" departSpeed="10" > <stop lane="2_TL2N_3" endPos="750" duration="6"/> </vehicle>
    <vehicle id="W_2_S_136" type="standard_car" route="W_2_S" depart="198.0" departLane="random" departSpeed="10" > <stop lane="2_TL2S_2" endPos="750" duration="6"/> </vehicle>
    <vehicle id="S_2_S_137" type="standard_car" route="S_2_S" depart="200.0" departLane="random" departSpeed="10" > <stop lane="2_TL2S_3" endPos="750" duration="6"/> </vehicle>
    <vehicle id="S_N_138" type="standard_car" route="S_N" depart="200.0" departLane="random" departSpeed="10" > <stop lane="TL2N_0" endPos="750" duration="6"/> </vehicle>
    <vehicle id="E_W_139" type="standard_car" route="E_W" depart="200.0" departLane="random" departSpeed="10" > <stop lane="TL2W_3" endPos="750" duration="6"/> </vehicle>
    <vehicle id="N_W_140" type="standard_car" route="N_W" depart="200.0" departLane="random" departSpeed="10" > <stop lane="TL2W_0" endPos="750" duration="6"/> </vehicle>
    <vehicle id="E_S_141" type="standard_car" route="E_S" depart="201.0" departLane="random" departSpeed="10"> <stop lane="TL2S_0" endPos="750" duration="6"/> </vehicle>
    <vehicle id="2_S_E_142" type="standard_car" route="2_S_E" depart="201.0" departLane="random" departSpeed="10"> <stop lane="2_TL2E_3" endPos="750" duration="6"/> </vehicle>
    <vehicle id="E_S_143" type="standard_car" route="E_S" depart="202.0" departLane="random" departSpeed="10"> <stop lane="TL2S_1" endPos="750" duration="6"/> </vehicle>
    <vehicle id="W_E_144" type="standard_car" route="W_E" depart="202.0" departLane="random" departSpeed="10" > <stop lane="2_TL2E_2" endPos="750" duration="6"/> </vehicle>
    <vehicle id="2_S_2_N_145" type="standard_car" route="2_S_2_N" depart="202.0" departLane="random" departSpeed="10" > <stop lane="2_TL2N_1" endPos="750" duration="6"/> </vehicle>
    <vehicle id="E_W_146" type="standard_car" route="E_W" depart="205.0" departLane="random" departSpeed="10" > <stop lane="TL2W_1" endPos="750" duration="6"/> </vehicle>
    <vehicle id="2_S_2_N_147" type="standard_car" route="2_S_2_N" depart="207.0" departLane="random" departSpeed="10" > <stop lane="2_TL2N_3" endPos="750" duration="6"/> </vehicle>
    <vehicle id="2_S_N_148" type="standard_car" route="2_S_N" depart="207.0" departLane="random" departSpeed="10" > <stop lane="TL2N_0" endPos="750" duration="6"/> </vehicle>
    <vehicle id="S_N_149" type="standard_car" route="S_N" depart="208.0" departLane="random" departSpeed="10" > <stop lane="TL2N_3" endPos="750" duration="6"/> </vehicle>
    <vehicle id="2_N_S_150" type="standard_car" route="2_N_S" depart="208.0" departLane="random" departSpeed="10"> <stop lane="TL2S_2" endPos="750" duration="6"/> </vehicle>
    <vehicle id="W_2_S_151" type="standard_car" route="W_2_S" depart="210.0" departLane="random" departSpeed="10" > <stop lane="2_TL2S_1" endPos="750" duration="6"/> </vehicle>
    <vehicle id="E_S_152" type="standard_car" route="E_S" depart="211.0" departLane="random" departSpeed="10"> <stop lane="TL2S_2" endPos="750" duration="6"/> </vehicle>
    <vehicle id="S_N_153" type="standard_car" route="S_N" depart="212.0" departLane="random" departSpeed="10" > <stop lane="TL2N_0" endPos="750" duration="6"/> </vehicle>
    <vehicle id="S_W_154" type="standard_car" route="S_W" depart="213.0" departLane="random" departSpeed="10"> <stop lane="TL2W_0" endPos="750" duration="6"/> </vehicle>
    <vehicle id="S_W_155" type="standard_car" route="S_W" depart="213.0" departLane="random" departSpeed="10"> <stop lane="TL2W_2" endPos="750" duration="6"/> </vehicle>
    <vehicle id="2_S_2_N_156" type="standard_car" route="2_S_2_N" depart="214.0" departLane="random" departSpeed="10" > <stop lane="2_TL2N_2" endPos="750" duration="6"/> </vehicle>
    <vehicle id="E_S_157" type="standard_car" route="E_S" depart="215.0" departLane="random" departSpeed="10"> <stop lane="TL2S_3" endPos="750" duration="6"/> </vehicle>
    <vehicle id="W_N_158" type="standard_car" route="W_N" depart="216.0" departLane="random" departSpeed="10" > <stop lane="TL2N_0" endPos="750" duration="6"/> </vehicle>
    <vehicle id="W_2_N_159" type="standard_car" route="W_2_N" depart="216.0" departLane="random" departSpeed="10" > <stop lane="2_TL2N_3" endPos="750" duration="6"/> </vehicle>
    <vehicle id="E_S_160" type="standard_car" route="E_S" depart="217.0" departLane="random" departSpeed="10"> <stop lane="TL2S_3" endPos="750" duration="6"/> </vehicle>
    <vehicle id="W_2_S_161" type="standard_car" route="W_2_S" depart="217.0" departLane="random" departSpeed="10" > <stop lane="2_TL2S_3" endPos="750" duration="6"/> </vehicle>